examples/data/enwl/lv-network-models/Network_14/Feeder_3/Loads.dss
New Load.LOAD1 Phases=1 Bus1=93.1 kV=0.23 kW=1 PF=0.95
New Load.LOAD2 Phases=1 Bus1=94.2 kV=0.23 kW=1 PF=0.95
New Load.LOAD3 Phases=1 Bus1=95.3 kV=0.23 kW=1 PF=0.95
New Load.LOAD4 Phases=1 Bus1=96.1 kV=0.23 kW=1 PF=0.95
New Load.LOAD5 Phases=1 Bus1=97.2 kV=0.23 kW=1 PF=0.95
New Load.LOAD6 Phases=1 Bus1=98.3 kV=0.23 kW=1 PF=0.95
New Load.LOAD7 Phases=1 Bus1=99.1 kV=0.23 kW=1 PF=0.95
New Load.LOAD8 Phases=1 Bus1=100.2 kV=0.23 kW=1 PF=0.95
New Load.LOAD9 Phases=1 Bus1=101.3 kV=0.23 kW=1 PF=0.95
New Load.LOAD10 Phases=1 Bus1=102.1 kV=0.23 kW=1 PF=0.95
New Load.LOAD11 Phases=1 Bus1=103.2 kV=0.23 kW=1 PF=0.95
New Load.LOAD12 Phases=1 Bus1=104.3 kV=0.23 kW=1 PF=0.95
New Load.LOAD13 Phases=1 Bus1=105.1 kV=0.23 kW=1 PF=0.95
New Load.LOAD14 Phases=1 Bus1=106.2 kV=0.23 kW=1 PF=0.95
New Load.LOAD15 Phases=1 Bus1=107.3 kV=0.23 kW=1 PF=0.95
New Load.LOAD16 Phases=1 Bus1=108.1 kV=0.23 kW=1 PF=0.95
New Load.LOAD17 Phases=1 Bus1=109.2 kV=0.23 kW=1 PF=0.95
New Load.LOAD18 Phases=1 Bus1=110.3 kV=0.23 kW=1 PF=0.95
New Load.LOAD19 Phases=1 Bus1=111.1 kV=0.23 kW=1 PF=0.95
New Load.LOAD20 Phases=1 Bus1=112.2 kV=0.23 kW=1 PF=0.95
New Load.LOAD21 Phases=1 Bus1=113.3 kV=0.23 kW=1 PF=0.95
New Load.LOAD22 Phases=1 Bus1=114.1 kV=0.23 kW=1 PF=0.95
New Load.LOAD23 Phases=1 Bus1=115.2 kV=0.23 kW=1 PF=0.95
New Load.LOAD24 Phases=1 Bus1=116.3 kV=0.23 kW=1 PF=0.95
New Load.LOAD25 Phases=1 Bus1=117.1 kV=0.23 kW=1 PF=0.95
New Load.LOAD26 Phases=1 Bus1=118.2 kV=0.23 kW=1 PF=0.95
New Load.LOAD27 Phases=1 Bus1=119.3 kV=0.23 kW=1 PF=0.95
New Load.LOAD28 Phases=1 Bus1=121.1 kV=0.23 kW=1 PF=0.95
New Load.LOAD29 Phases=1 Bus1=122.1 kV=0.23 kW=1 PF=0.95
New Load.LOAD30 Phases=1 Bus1=123.1 kV=0.23 kW=1 PF=0.95
New Load.LOAD31 Phases=1 Bus1=124.1 kV=0.23 kW=1 PF=0.95
New Load.LOAD32 Phases=1 Bus1=125.1 kV=0.23 kW=1 PF=0.95
New Load.LOAD33 Phases=1 Bus1=126.1 kV=0.23 kW=1 PF=0.95
New Load.LOAD34 Phases=1 Bus1=127.1 kV=0.23 kW=1 PF=0.95
New Load.LOAD35 Phases=1 Bus1=128.1 kV=0.23 kW=1 PF=0.95
New Load.LOAD36 Phases=1 Bus1=129.1 kV=0.23 kW=1 PF=0.95
New Load.LOAD37 Phases=1 Bus1=130.1 kV=0.23 kW=1 PF=0.95
New Load.LOAD38 Phases=1 Bus1=131.1 kV=0.23 kW=1 PF=0.95
New Load.LOAD39 Phases=1 Bus1=132.1 kV=0.23 kW=1 PF=0.95
New Load.LOAD40 Phases=1 Bus1=133.1 kV=0.23 kW=1 PF=0.95
New Load.LOAD41 Phases=1 Bus1=134.1 kV=0.23 kW=1 PF=0.95
New Load.LOAD42 Phases=1 Bus1=135.1 kV=0.23 kW=1 PF=0.95
New Load.LOAD43 Phases=1 Bus1=136.1 kV=0.23 kW=1 PF=0.95
New Load.LOAD44 Phases=1 Bus1=137.1 kV=0.23 kW=1 PF=0.95
New Load.LOAD45 Phases=1 Bus1=138.1 kV=0.23 kW=1 PF=0.95
New Load.LOAD46 Phases=1 Bus1=139.1 kV=0.23 kW=1 PF=0.95
New Load.LOAD47 Phases=1 Bus1=140.1 kV=0.23 kW=1 PF=0.95
New Load.LOAD48 Phases=1 Bus1=141.1 kV=0.23 kW=1 PF=0.95
New Load.LOAD49 Phases=1 Bus1=142.1 kV=0.23 kW=1 PF=0.95
New Load.LOAD50 Phases=1 Bus1=143.1 kV=0.23 kW=1 PF=0.95
New Load.LOAD51 Phases=1 Bus1=144.1 kV=0.23 kW=1 PF=0.95
New Load.LOAD52 Phases=1 Bus1=145.1 kV=0.23 kW=1 PF=0.95
New Load.LOAD53 Phases=1 Bus1=146.1 kV=0.23 kW=1 PF=0.95
New Load.LOAD54 Phases=1 Bus1=147.1 kV=0.23 kW=1 PF=0.95
New Load.LOAD55 Phases=1 Bus1=148.1 kV=0.23 kW=1 PF=0.95
New Load.LOAD56 Phases=1 Bus1=149.1 kV=0.23 kW=1 PF=0.95
New Load.LOAD57 Phases=1 Bus1=150.1 kV=0.23 kW=1 PF=0.95
New Load.LOAD58 Phases=1 Bus1=151.1 kV=0.23 kW=1 PF=0.95
New Load.LOAD59 Phases=1 Bus1=152.1 kV=0.23 kW=1 PF=0.95
New Load.LOAD60 Phases=1 Bus1=154.1 kV=0.23 kW=1 PF=0.95